71
2Dy
C      -0.099586    3.689203    3.947256
H      -0.831874    3.174805    4.202821
C      -0.113953    4.255846    2.712295
H      -0.839338    4.127246    2.143455
C       0.954639    5.021416    2.314932
H       0.969022    5.415252    1.472389
C       2.001949    5.196231    3.187153
H       2.737024    5.714648    2.946427
C       1.944560    4.587392    4.432006
C       3.078886    4.705945    5.399859
C       5.070415    5.604133    5.925830
C       4.163667    4.024768    7.269611
C      -3.693330    2.654378    5.985187
H      -4.025116    3.550557    5.904395
H      -4.400553    2.075679    6.283622
H      -3.372102    2.352972    5.132751
C      -2.559714    2.624237    6.989313
C      -2.660275    1.860677    8.140184
H      -3.428647    1.348287    8.245708
C      -1.717386    1.800396    9.136066
C      -2.066272    1.105154   10.392461
H      -1.470606    0.363696   10.524366
H      -2.971305    0.785664   10.341348
H      -1.985493    1.716002   11.129480
C       0.955228    7.720000    6.537539
H       1.577419    7.637615    5.810413
H       1.174261    8.495616    7.060212
H       0.065718    7.810421    6.189640
C       1.031646    6.480218    7.414707
C       1.811666    6.492274    8.550738
H       2.249770    7.281957    8.766732
C       1.988432    5.397168    9.404823
C       2.787597    5.592077   10.662866
H       2.253325    5.346934   11.422968
H       3.046622    6.514378   10.738711
H       3.573461    5.041509   10.631539
C      -0.146398   -0.787673    5.023930
H       0.054175   -0.470193    4.140167
H      -1.095100   -0.769589    5.160781
H       0.175027   -1.685861    5.121210
C       0.528730    0.102478    6.042895
C       1.518916   -0.444071    6.872248
H       1.685287   -1.356325    6.801349
C       2.258767    0.267246    7.777445
C       3.400655   -0.407902    8.532601
H       4.071522   -0.697251    7.907702
H       3.062108   -1.165435    9.012405
H       3.788628    0.217012    9.150906
Dy      0.655332    3.188468    7.288573
N       0.907442    3.827850    4.817828
N       3.040882    3.952431    6.489723
N       4.264543    3.214992    8.303416
H       4.968875    3.231067    8.798060
H       3.624505    2.668443    8.486434
N       5.185317    4.860666    7.020641
N       6.028755    6.474190    5.627395
H       6.716703    6.550546    6.140175
H       5.964234    6.960458    4.920054
N       4.029290    5.569974    5.060204
O       0.369854    5.474930    7.009099
O       1.535183    4.234546    9.195753
O       0.201192    1.289212    6.051139
O       2.082499    1.498387    8.014874
O      -1.565850    3.347409    6.704069
O      -0.575880    2.327051    9.058572
C       1.544525    1.203613   11.388343
H       2.065854    0.448090   11.670290
H       1.054084    0.976554   10.595265
H       0.931690    1.446746   12.084142
O       2.377065    2.258532   11.122885
H       1.929798    2.913587   10.911837
