68
EG23p_150
Dy      3.842107    1.732829    3.574309
O       2.088704    2.796805    2.519967
O       2.258953    0.085019    3.145292
O       5.050738    0.099842    2.505967
O       4.451973    0.329098    5.304375
N       4.339348    4.212965    4.151724
O       2.520830    2.298862    5.411707
N       6.262580    2.340556    4.308833
O       4.828247    2.776162    1.753088
C       0.303154    3.493917    1.137096
H      -0.420974    3.085415    0.665458
H      -0.039837    4.123756    1.776406
H       0.873938    3.955914    0.513700
O       9.578870    5.707837    4.327499
O       7.639145    7.638884    4.540607
C       4.355475    0.360430    6.578359
C       6.653589    3.599146    4.347721
C       5.621926    4.664802    4.271500
C       2.547971    2.087131    6.646802
C       7.189467    1.357050    4.445720
H       6.909608    0.470788    4.435422
C       6.171837    3.547201   -0.041999
H       6.841400    3.197988   -0.633523
H       5.425714    3.866853   -0.555684
H       6.544790    4.279912    0.461496
C       4.920055    6.959721    4.257500
H       5.112079    7.868408    4.300588
C       8.017570    3.955183    4.469053
C       0.683473    1.133137    1.714200
H      -0.038207    0.967925    1.151267
C       1.093904    2.447851    1.846420
C       5.921606    6.016020    4.324388
C       8.519104    1.628151    4.596607
H       9.132811    0.934816    4.686470
C       8.942956    2.945108    4.615273
H       9.844055    3.146041    4.726276
C       3.610008    6.506238    4.122168
H       2.905745    7.109382    4.056369
C       5.717977    2.467189    0.903766
C       1.526903    2.809850    7.516346
H       1.651437    2.561590    8.434843
H       1.641125    3.759380    7.423512
H       0.638275    2.568711    7.238574
C       3.373168    5.144278    4.087947
H       2.491662    4.855949    4.018072
C       3.425262    1.169378    7.272127
H       3.387332    1.101245    8.197904
C       6.440086   -1.316707    1.183762
H       7.015735   -1.241437    0.421068
H       6.941689   -1.638843    1.935724
H       5.730360   -1.938187    0.986676
C       0.652968   -1.373095    2.193305
H       1.351477   -2.028334    2.099257
H       0.098899   -1.386428    1.408895
H       0.119495   -1.588753    2.963310
C       1.267683    0.006984    2.365969
C       5.202998   -0.580631    7.331238
H       5.049174   -0.468722    8.271683
H       4.983656   -1.481687    7.077016
H       6.127059   -0.410765    7.134851
C       8.443840    5.379240    4.447275
C       7.354846    6.435780    4.459720
C       5.836517    0.059322    1.516647
C       6.225688    1.177133    0.718657
H       6.857317    1.042542    0.044768
N       8.181385    5.792513    7.278349
C       7.769223    6.229452    8.244337
C       7.184681    6.804095    9.417210
