65
a
Dy      4.763284   17.792245    4.951665
O       5.329409   20.040745    5.054366
O       3.478006   18.722894    6.628241
O       5.748261   18.186171    2.889871
O       3.095004   18.670777    3.574543
O       5.756909   15.768185    4.359518
O       3.112826   16.159905    5.054366
N       7.219023   17.883135    5.661995
N       5.358709   16.651025    7.198511
C       8.126303   18.512114    4.942435
H       7.837531   19.041692    4.235957
C       9.500844   18.423851    5.186649
H      10.107253   18.879876    4.647342
C       9.930087   17.669412    6.205663
H      10.842646   17.589555    6.368472
C       9.018133   17.009541    7.024072
C       9.388567   16.227783    8.166646
H      10.290818   16.120607    8.367251
C       8.476922   15.647769    8.950168
H       8.753485   15.162323    9.694440
C       7.073564   15.759149    8.660890
C       6.067826   15.223266    9.474938
H       6.300582   14.735718   10.230840
C       4.777857   15.408198    9.175484
H       4.110989   15.071958    9.729328
C       4.448207   16.118505    8.014012
H       3.548909   16.223580    7.801778
C       6.655021   16.492572    7.532852
C       7.652759   17.137522    6.710082
C       5.419869   22.385178    5.166298
H       6.070969   22.679388    5.807361
H       4.714233   23.032440    5.106698
H       5.838129   22.286407    4.307186
C       4.848811   21.059131    5.602395
C       3.872940   21.031812    6.585067
H       3.596907   21.847194    6.938306
C       3.282142   19.894900    7.077857
C       2.342653   19.962149    8.271310
H       1.557560   19.440977    8.091056
H       2.089491   20.876301    8.428305
H       2.786851   19.615401    9.049016
C       6.678160   19.403150    1.087336
H       7.126329   20.174400    1.442028
H       6.356498   19.596488    0.204966
H       7.291058   18.665523    1.050994
C       5.503987   19.041692    1.985696
C       4.277926   19.646923    1.792359
H       4.201699   20.250054    1.090243
C       3.155685   19.419961    2.565705
C       1.827776   20.134472    2.205198
H       1.194306   19.491412    1.881032
H       1.992445   20.792241    1.524886
H       1.472664   20.565279    2.987266
C       6.620230   13.581995    4.449645
H       6.847635   13.462209    3.523665
H       6.363218   12.737191    4.827596
H       7.380404   13.926640    4.923537
C       5.482210   14.548685    4.561576
C       4.194006   14.098964    4.869752
H       4.076098   13.180608    4.961332
C       3.095551   14.889128    5.047098
C       1.747065   14.243967    5.241888
H       1.482433   14.328027    6.160599
H       1.800198   13.315104    5.007849
H       1.099997   14.678978    4.682230
