69
a
Dy     -1.922383    6.591980    3.678787
O      -1.142485    7.594039    1.742708
O      -0.561146    5.035813    2.642475
O      -3.305820    4.796993    3.286520
O      -3.833952    7.450210    2.664575
O      -3.331631    7.023122    5.535939
O      -1.098515    5.381272    5.468061
N       0.435978    7.484380    4.309413
N      -1.704438    9.116750    4.194180
N       3.290581   11.125248    5.636965
N       1.061904   12.854428    5.512261
C       1.484552    6.660178    4.364662
H       1.346940    5.752010    4.217858
C       2.766039    7.100927    4.629857
H       3.475639    6.500065    4.623543
C       2.985484    8.394268    4.893473
H       3.847910    8.696867    5.068691
C       1.901577    9.292141    4.906101
C       2.051290   10.684037    5.250223
C       3.350303   12.401182    5.952673
H       4.165405   12.756710    6.225760
C       2.245795   13.233509    5.894267
H       2.358308   14.122513    6.142098
C       0.967484   11.545826    5.190238
C      -0.338777   11.030386    4.778240
C      -1.464803   11.863359    4.651956
H      -1.394598   12.774861    4.820860
C      -2.666301   11.321277    4.276264
H      -3.415253   11.856941    4.145245
C      -2.730222    9.963490    4.099468
H      -3.561515    9.600431    3.895836
C      -0.505913    9.682825    4.517781
C       0.642239    8.790848    4.568294
C      -4.346399    7.400193    7.619611
H      -4.641149    8.227371    7.231290
H      -4.002168    7.566121    8.500436
H      -5.085748    6.790475    7.674860
C      -3.276785    6.806535    6.771935
C      -2.251270    6.048867    7.393880
H      -2.270563    5.967468    8.318904
C      -1.233590    5.430695    6.715108
C      -0.155623    4.729242    7.521742
H      -0.188864    3.786013    7.346524
H      -0.302561    4.886871    8.456237
H       0.705450    5.071298    7.270754
C       0.927384    3.749131    1.406479
H       1.691684    3.717958    1.987381
H       1.219775    3.724014    0.492504
H       0.361354    2.993421    1.581697
C       0.175520    4.994924    1.647995
C       0.356855    6.072584    0.762435
H       0.949593    5.956502    0.055249
C      -0.284800    7.290509    0.868197
C      -4.281508    4.595739    2.487779
C      -4.964965    5.584999    1.815321
H      -5.612968    5.319249    1.202847
C      -4.761816    6.945822    1.981067
C       0.041489    8.375533   -0.140490
H      -0.756733    8.623106   -0.612473
H       0.692854    8.046970   -0.764013
H       0.393259    9.141928    0.317286
C      -5.693737    7.931915    1.340180
H      -5.797939    8.693726    1.916347
H      -6.548607    7.518608    1.198112
H      -5.330707    8.214750    0.498819
C      -4.647188    3.145081    2.269940
H      -4.736862    2.975480    1.329130
H      -5.478842    2.955237    2.710353
H      -3.957364    2.583573    2.631426
