83
p130915d
C       4.423587    3.593551    8.503566
H       4.042592    3.966854    9.266330
C       3.664517    3.609291    7.317509
C       2.295842    4.258422    7.352434
H       2.207961    4.861640    6.612022
H       2.193375    4.744340    8.173873
H       1.618498    3.580920    7.295157
C       4.192812    3.021824    6.183141
C       3.366722    2.974703    4.917455
H       2.481345    2.666180    5.124212
H       3.776365    2.374615    4.290200
H       3.319131    3.853409    4.534676
C       5.507131    2.488166    6.257183
C       6.194963    2.542859    7.493531
C       7.523423    2.001540    7.611578
C       6.194876    1.879420    5.149358
H       5.756354    1.806304    4.333508
C       7.457083    1.412083    5.255530
H       7.867007    1.043973    4.506736
C       8.184912    1.466784    6.490482
C       9.533226    1.012932    6.635771
C      10.110854    1.092888    7.884693
C       9.351843    1.595286    8.945019
H       9.754488    1.622864    9.783222
C      11.518179    0.632881    8.172476
H      11.630200   -0.267944    7.859547
H      11.679334    0.665076    9.118247
H      12.141284    1.207925    7.721243
C      10.289250    0.455304    5.456699
H      11.200163    0.285853    5.712351
H      10.271569    1.089013    4.737242
H       9.879656   -0.364401    5.173107
C       9.381705    6.302895    8.840244
H       9.158708    6.006369    7.954543
H      10.315104    6.525456    8.876566
H       8.859540    7.078659    9.058176
C       9.087121    5.202956    9.829323
C      10.145573    4.744046   10.625615
H      10.980916    5.135422   10.509664
C      10.020316    3.740430   11.575578
C      11.208493    3.379335   12.433339
H      11.060476    3.686351   13.330216
H      11.997314    3.794353   12.078500
H      11.322330    2.425888   12.436133
C       7.458214   -1.342687   12.649875
H       7.986402   -1.743872   11.956960
H       6.840770   -1.991013   12.999126
H       8.034652   -1.037662   13.355362
C       6.687665   -0.166156   12.082970
C       5.303584   -0.150334   12.257316
H       4.923375   -0.810352   12.790972
C       4.451611    0.797158   11.677559
C       2.961713    0.571601   11.785129
H       2.501450    1.404390   11.658001
H       2.752739    0.218893   12.652669
H       2.683397   -0.052479   11.110376
C       5.598489    3.282957   15.400576
H       5.900360    2.380465   15.530498
H       4.720284    3.383072   15.774973
H       6.202583    3.888445   15.836441
C       5.555897    3.591932   13.918354
C       4.555288    4.439590   13.433594
H       3.871386    4.674620   14.017542
C       4.504081    4.954299   12.148350
C       3.434856    5.971072   11.806084
H       3.781928    6.857185   11.936005
H       2.673505    5.838754   12.376062
H       3.171166    5.862676   10.889649
Dy      6.834016    2.954015   10.883432
N       5.643572    3.085034    8.610017
N       8.102353    2.035080    8.853795
O       7.900053    4.785498    9.876961
O       8.959606    3.086575   11.793651
O       7.362311    0.721987   11.470663
O       4.824995    1.801722   11.019850
O       5.326656    4.670379   11.221577
O       6.464498    3.069193   13.195405
O       4.169781    1.709316    0.359729
H       3.536266    2.246387    0.074041
H       4.708262    1.891152   -0.364618
O      14.614817   10.551847   11.551131
H      14.774545    9.952059   12.248934
H      13.715130   10.759964   11.704103
