50
SD-159
Dy      5.434877    5.381685    2.720896
Cl      4.349134    7.787440    2.780421
Cl      3.252378    4.083058    3.420348
Cl      7.053468    3.426022    3.449108
N       6.409719    5.633969    0.338289
N       4.089498    5.559729    0.505896
N       5.309502    3.610045    0.766067
N       5.508654    5.907181    5.245693
N       7.658146    6.789430    3.001800
C       5.182751    6.188863   -0.242113
H       5.120706    5.969563   -1.205295
H       5.159462    7.172972   -0.136172
C       4.069996    4.125244    0.195296
H       3.283307    3.686711    0.607650
H       4.043430    3.976647   -0.782707
C       6.454284    4.186530    0.052168
H       6.378865    4.020444   -0.920632
H       7.302618    3.792723    0.377656
C       7.605951    6.306618   -0.195296
H       7.667732    6.146212   -1.160751
H       8.405407    5.951094    0.245952
H       7.541545    7.269999   -0.028398
C       2.788418    6.199492    0.247464
H       2.535540    6.058535   -0.688658
H       2.855923    7.160582    0.426641
H       2.108723    5.804905    0.832708
C       5.350725    2.146662    0.739716
H       5.393179    1.838007   -0.189878
H       4.544199    1.789095    1.165821
H       6.142858    1.833357    1.223995
C       5.842458    7.108813    5.750519
H       6.152666    7.780033    5.154373
C       5.757294    7.414079    7.101537
H       6.003602    8.276215    7.416284
C       5.306699    6.447459    7.988393
H       5.226427    6.633940    8.915713
C       4.978457    5.206796    7.484102
H       4.678641    4.517290    8.064745
C       5.092216    4.975438    6.118371
H       4.862958    4.115428    5.786408
C       8.841574    6.202316    3.267857
H       8.851016    5.268779    3.443824
C      10.054238    6.891074    3.298623
H      10.866753    6.432461    3.477051
C      10.051766    8.254806    3.064536
H      10.860690    8.752101    3.086687
C       8.839603    8.883110    2.795670
H       8.806436    9.817759    2.628197
C       7.674869    8.118782    2.775605
H       6.851049    8.555738    2.593098
