83
Angstrom
  Dy    10.781532    1.792613   12.019989
  O      9.199900    1.619809   10.353950
  O     16.604277   -2.158389   10.606097
  O     11.675925    2.549325   10.023416
  O      9.245066    0.278713   12.842078
  O     14.973757   -3.572391    9.772965
  O     11.489565    1.034069   14.082962
  N     13.306156    1.206069   11.909154
  O      9.186657    3.203499   12.793928
  O     11.796648    3.713848   12.742855
  N     11.395836   -0.460848   10.960476
  C     12.109366    0.060687   16.136791
  H     12.845740    0.866144   16.073687
  H     12.638304   -0.901864   16.141701
  H     11.566398    0.138118   17.086617
  C     16.405777   -3.350595    9.806082
  C     11.179363    0.162145   14.945426
  C     11.472283    4.813741   13.283871
  C     15.072063   -0.337752   11.318805
  C     13.035014   -2.103808   10.282794
  C     15.371448   -1.594131   10.736207
  C     10.046102   -0.681725   14.868892
  C      9.071655    4.335198   13.339506
  C     16.031827    0.559235   11.828975
  H     17.087776    0.297363   11.790977
  C     14.414304   -2.424048   10.247171
  C     16.893682   -3.083264    8.397794
  H     16.368131   -2.217829    7.979447
  H     16.702626   -3.954621    7.762497
  H     17.968769   -2.874545    8.405189
  C      7.696908    1.574515    8.543430
  H      7.720583    0.723181    7.849329
  H      7.312912    2.436233    7.983790
  H      7.015025    1.342755    9.365838
  C     12.004826   -2.927668    9.787275
  H     12.252504   -3.886049    9.334236
  C     10.443565   -1.245672   10.490602
  H      9.427428   -0.867988   10.603379
  C      9.072432    1.844920    9.116833
  C     13.699153    0.032114   11.383495
  C     12.679039   -0.855675   10.867670
  C     11.357592    2.672691    8.807781
  C      9.116228   -0.520104   13.809781
  C     10.159497    5.195300   13.638896
  C     12.424536    3.257357    7.905688
  H     13.272083    3.566946    8.522911
  H     12.051455    4.120383    7.340647
  H     12.771521    2.515872    7.173373
  C     15.597637    1.752710   12.361337
  H     16.298831    2.479636   12.765807
  C     14.218524    2.033150   12.380489
  H     13.825401    2.965630   12.783966
  C      7.849028   -1.349205   13.810298
  H      7.185542   -0.975438   13.025667
  H      7.332173   -1.307506   14.776551
  H      8.076100   -2.405730   13.610516
  C     10.701873   -2.491368    9.890252
  H      9.873672   -3.091666    9.519891
  C     17.071131   -4.519336   10.489685
  H     16.663337   -4.642944   11.497642
  H     18.150339   -4.347104   10.558865
  H     16.895918   -5.436496    9.917671
  C      7.655603    4.758270   13.666255
  H      6.971477    3.997641   13.281560
  H      7.408657    5.729205   13.219371
  H      7.511247    4.849264   14.750828
  C     12.609434    5.771722   13.566212
  H     13.521848    5.404370   13.088532
  H     12.784830    5.854299   14.647624
  H     12.393284    6.781642   13.197648
  C     10.097781    2.322099    8.263158
  C      9.824191    2.529908    6.793171
  H     10.729888    2.407899    6.188702
  H      9.099178    1.805403    6.405740
  H      9.423946    3.531703    6.565492
  C      9.769515   -1.697927   15.950651
  H      9.335657   -2.619231   15.543293
  H     10.683901   -1.996480   16.473172
  H      9.069563   -1.330608   16.719130
  C      9.931295    6.532668   14.300893
  H      8.939277    6.595251   14.757427
  H     10.652258    6.721040   15.107163
  H     10.010632    7.378582   13.599259