83
Angstrom
Dy      10.625647000      1.840698000     12.198023000
O        9.373574000      1.289197000     10.293340000
O       16.460324000     -1.833374000     10.057655000
O       11.326234000      3.225355000     10.446024000
O        8.869900000      0.625988000     13.048781000
O       14.869964000     -3.513716000      9.837300000
O       11.437027000      0.765573000     14.041229000
N       13.125860000      1.391278000     11.629251000
O        9.028798000      3.460850000     12.650966000
O       11.726270000      3.545868000     13.320857000
N       11.274428000     -0.590179000     11.426084000
C       12.037573000     -0.702378000     15.777898000
H       12.408284000     -0.002554000     16.320686000
H       12.737159000     -1.118303000     15.269719000
H       11.619206000     -1.356980000     16.342489000
C       16.171981000     -3.067373000      9.323655000
C       11.019000000     -0.124508000     14.846152000
C       11.435211000      4.697771000     13.742674000
C       14.912543000     -0.076684000     10.908568000
C       12.955865000     -2.191488000     10.708963000
C       15.222331000     -1.384896000     10.459187000
C        9.689861000     -0.581627000     14.891368000
C        9.018773000      4.604866000     13.195891000
C       15.848980000      0.965245000     11.040502000
H       16.749873000      0.825560000     10.856615000
C       14.301004000     -2.363308000     10.339951000
C       16.039853000     -2.736004000      7.855656000
H       15.238243000     -2.227633000      7.712557000
H       15.997588000     -3.549289000      7.346207000
H       16.799759000     -2.221767000      7.573809000
C        8.863741000      0.347252000      8.190291000
H        8.904480000     -0.544947000      8.543169000
H        9.227459000      0.356347000      7.301826000
H        7.950237000      0.640093000      8.165422000
C       11.987888000     -3.211737000     10.707725000
H       12.216834000     -4.081197000     10.469810000
C       10.381722000     -1.574399000     11.382261000
H        9.494506000     -1.372694000     11.574355000
C        9.669179000      1.277032000      9.075117000
C       13.558183000      0.173693000     11.222299000
C       12.567466000     -0.888042000     11.124122000
C       11.462166000      2.961963000      9.223001000
C        8.694874000     -0.179529000     14.014750000
C       10.148013000      5.247564000     13.723008000
C       12.567112000      3.704020000      8.498292000
H       12.518443000      4.638878000      8.713212000
H       12.462902000      3.587952000      7.551278000
H       13.418905000      3.356971000      8.772071000
C       15.394051000      2.190677000     11.447299000
H       15.986776000      2.901470000     11.541325000
C       14.034857000      2.368216000     11.720768000
H       13.746763000      3.212792000     11.980966000
C        7.304586000     -0.754169000     14.139561000
H        6.658247000     -0.048504000     14.059456000
H        7.209492000     -1.178718000     14.995584000
H        7.161237000     -1.399888000     13.444336000
C       10.705507000     -2.904241000     11.061562000
H       10.054045000     -3.566911000     11.090132000
C       17.197526000     -4.109452000      9.650393000
H       17.249270000     -4.219304000     10.602642000
H       18.052842000     -3.833096000      9.313187000
H       16.947799000     -4.942974000      9.245068000
C        7.687162000      5.307786000     13.249160000
H        7.039486000      4.735750000     13.666797000
H        7.400505000      5.517824000     12.356979000
H        7.773182000      6.118230000     13.756332000
C       12.571836000      5.507319000     14.323835000
H       13.336846000      5.444739000     13.746840000
H       12.797056000      5.165666000     15.191952000
H       12.303550000      6.425779000     14.400642000
C       10.696836000      2.044298000      8.492098000
C       10.990602876      1.866990153      6.990810902
H       12.068217091      1.812201232      6.798836340
H       10.538855615      0.947406740      6.601711557
H       10.593084371      2.703540019      6.404916688
C        9.315333280     -1.596238223     15.987676831
H        8.254305132     -1.865828541     15.936210480
H        9.895856470     -2.520755344     15.890886022
H        9.504713248     -1.190799193     16.988108284
C        9.959309390      6.654100248     14.321043728
H        8.934583413      7.014912263     14.176614447
H       10.162748738      6.660403055     15.397928239
H       10.633914771      7.380302897     13.853447788
