80
K1648
Dy    4.718837   10.251618    9.561891
 O    5.591658    8.137445    9.990493
 O    2.940330    8.873234   10.037120
 O    5.874016    9.782214    7.621095
 O    3.256146   10.729807    7.877544
 O    5.689088   12.291354    9.075128
 O    3.362537   11.873522   10.516890
 N    7.111450   10.426756   10.526706
 N    8.583181   10.293506   12.390568
 C    7.371154   10.271885   11.818771
 C    8.182516   10.613634    9.730363
 H    8.045208   10.737130    8.798874
 C    9.464394   10.633276   10.217494
 H   10.211030   10.749625    9.640949
 C    9.624787   10.478125   11.564775
 H   10.501370   10.502813   11.929829
 C    6.964675    6.442257   11.943928
 H    7.626862    5.757610   12.173469
 H    6.366368    6.587352   12.706148
 H    7.423996    7.280457   11.725283
 C    6.158610    5.983682   10.750026
 H    6.768387    5.807791    9.990456
 H    5.695398    5.137767   10.972830
 C    5.137506    7.021650   10.342651
 C    3.785909    6.699386   10.370873
 H    3.544482    5.791713   10.514289
 C    2.766596    7.627626   10.200316
 C    8.092523    9.379836    5.973191
 H    8.693333    9.112753    5.246653
 H    8.014608    8.645997    6.618708
 H    8.452697   10.172506    6.421426
 C    6.748368    9.692910    5.414892
 H    6.426730    8.896663    4.922447
 H    6.852006   10.424776    4.756945
 C    5.673770   10.099804    6.410014
 C    4.541877   10.741919    5.911839
 H    4.559912   11.028983    5.007026
 C    3.390422   10.991487    6.646831
 C    2.193519   11.587477    5.942515
 H    2.506897   12.097512    5.153620
 H    1.614656   10.853841    5.615953
 C    1.376594   12.498144    6.816162
 H    1.961587   13.170621    7.223905
 H    0.942365   11.972817    7.519766
 H    0.693789   12.945598    6.273581
 C    6.245927   14.518771    8.467747
 H    6.002120   14.649910    7.517398
 H    6.111414   15.382115    8.932730
 C    5.303292   13.491247    9.072673
 C    4.079380   13.921560    9.610113
 H    3.849421   14.837818    9.505030
 C    3.189618   13.111733   10.280073
 C    7.694683   14.160110    8.541369
 H    8.214087   14.784882    7.994640
 H    7.822285   13.247761    8.206279
 H    7.996398   14.210785    9.472502
 H    1.612006   13.274942   11.600752
 C    1.647901   15.128306   10.734075
 H    1.748355   15.490322    9.829139
 H    2.330792   15.520000   11.319430
 H    0.757817   15.350638   11.078294
 C    0.721019    7.601678    8.601493
 H    1.080960    8.477231    8.340479
 H   -0.254596    7.665926    8.685680
 H    0.942611    6.942618    7.908122
 C    1.328693    7.177254    9.938958
 H    0.753724    7.517266   10.664367
 H    1.302644    6.182407    9.984100
 C    2.126522   13.874908   11.043287
 H    2.558032   14.578739   11.596641
 H    1.647955   13.262604   11.653490
 N    6.477678    9.914283   14.013931
 N    5.005948   10.047532   12.150069
 C    6.217974   10.069153   12.721866
 C    5.406613    9.727405   14.810274
 H    5.543920    9.603908   15.741763
 C    4.124734    9.707762   14.323143
 H    3.378099    9.591413   14.899688
 C    3.964342    9.862913   12.975862
 H    3.087759    9.838225   12.610808
