234
VEZTIG
Dy     -1.434834    7.346065    6.555678
Dy     -8.073246    7.867656    4.094559
O      -2.680048    6.117138    4.953290
O      -0.754973    8.401875    4.658294
O      -0.064011    5.786790    5.489170
O      -1.593932    9.190677    7.881107
O       0.756631    8.023258    7.072378
O      -3.393050    6.663373    7.672874
O      -0.808225    6.051150    8.342324
O      -6.415438    7.532420    2.479157
O      -8.589978    5.979459    2.896764
O      -8.043816    9.875609    2.980559
O     -10.236490    8.367659    3.620327
O      -8.431815    9.173773    5.944908
O      -9.099417    6.517955    5.677082
N      -3.937211    5.777218    5.022701
N      -6.222004    6.277424    5.064257
N      -5.798413    8.867865    4.886391
N      -3.528887    8.638536    5.582555
C      -4.220749    4.441977    4.965392
H      -3.511480    3.810610    4.922695
C      -5.517538    4.004908    4.969730
C      -5.829027    2.535247    4.896437
H      -6.139963    2.311620    3.993411
H      -6.528126    2.317730    5.546023
H      -5.020724    2.020377    5.100789
C      -6.511577    4.978640    5.006490
H      -7.421476    4.708781    4.988909
C      -4.947328    6.678852    5.104670
C      -4.714628    8.149531    5.192804
C      -5.682790   10.205753    4.961054
H      -6.437306   10.747508    4.765150
C      -4.489621   10.812070    5.317926
H      -4.404056   11.757696    5.349663
C      -3.428968    9.978054    5.626622
H      -2.600334   10.366650    5.879378
C       1.280745    8.971124    1.610835
H       0.893709    8.226110    1.105095
H       2.161892    8.710838    1.952182
H       1.375551    9.749539    1.022898
C      -0.997986    9.750558    2.247863
H      -0.888464   10.531621    1.664492
H      -1.587744    9.981720    2.995629
H      -1.391576    9.012265    1.735273
C       0.979900   10.487425    3.576717
H       1.835798   10.201680    3.961445
H       0.372269   10.755654    4.294800
H       1.132126   11.246492    2.977363
C       0.361030    9.326727    2.786711
C       0.152375    8.185377    3.796594
C       0.959149    7.030585    3.758235
H       1.660357    7.014291    3.116641
C       0.819838    5.906954    4.580207
C       1.724600    4.676602    4.356905
C       3.075235    5.027927    3.716224
H       2.927476    5.382919    2.815252
H       3.629689    4.222017    3.662339
H       3.529980    5.702676    4.262835
C       2.018492    3.994928    5.702654
H       2.533850    4.604911    6.272098
H       2.535666    3.177205    5.548306
H       1.173424    3.769876    6.146519
C       0.946687    3.719570    3.444060
H       0.088010    3.496962    3.860982
H       1.466921    2.900218    3.310718
H       0.787527    4.150733    2.577793
C      -0.580860   11.523479   10.610280
H      -1.096831   12.101893   11.210775
H       0.029755   12.071343   10.073715
H      -0.066089   10.879891   11.139995
C      -2.393734   11.688449    8.861307
H      -2.808651   12.354440    9.450387
H      -3.094801   11.177245    8.404657
H      -1.835479   12.144663    8.196881
C      -2.468443    9.932840   10.580597
H      -1.933388    9.283142   11.080630
H      -3.128851    9.460332   10.030333
H      -2.929953   10.527547   11.206209
C      -1.549626   10.762783    9.671862
C      -0.837145    9.762167    8.742807
C       0.527755    9.539559    8.856969
H       0.994137    9.981720    9.557700
C       1.265999    8.696785    7.997324
C       2.806537    8.625705    8.145964
C       3.220249    8.459309    9.608160
H       2.949193    9.252592   10.117097
H       4.193474    8.352384    9.662729
H       2.784387    7.666026    9.982385
C       3.343534    7.461952    7.329701
H       2.973739    6.623251    7.676299
H       4.320770    7.439956    7.395459
H       3.082584    7.572339    6.390827
C       3.397889    9.937728    7.616934
H       3.106242   10.077443    6.692216
H       4.375228    9.892106    7.648900
H       3.088772   10.682334    8.171765
C      -5.328453    6.278443   10.807553
H      -4.869387    7.038732   11.222192
H      -4.960270    5.441982   11.162827
H      -6.285806    6.325897   11.007566
C      -5.845516    7.553398    8.724084
H      -6.806457    7.476616    8.900123
H      -5.693728    7.604926    7.756213
H      -5.499562    8.362567    9.153564
C      -5.696963    5.048294    8.664491
H      -5.256358    4.264787    9.055384
H      -5.543618    5.061125    7.696848
H      -6.659030    5.002062    8.843041
C      -5.120825    6.324064    9.290331
C      -3.635173    6.372537    8.885967
C      -2.640654    6.059908    9.824840
H      -2.894620    5.985773   10.738142
C      -1.289480    5.849520    9.492170
C      -0.334715    5.321615   10.577629
C      -0.925333    4.077006   11.255299
H      -1.753745    4.319777   11.719941
H      -0.281495    3.718959   11.902601
H      -1.119353    3.397166   10.576031
C       1.003694    4.956644    9.952474
H       0.874702    4.238310    9.297409
H       1.620106    4.653791   10.651378
H       1.379016    5.743409    9.505185
C      -0.135613    6.446061   11.613541
H       0.201980    7.248509   11.165110
H       0.509216    6.154817   12.290754
H      -0.991953    6.649728   12.044163
C      -4.888081    6.547894   -0.537478
H      -5.684594    6.997998   -0.885902
H      -4.979872    5.580476   -0.657577
H      -4.095859    6.863578   -1.022898
C      -4.378027    8.372343    0.990932
H      -3.591724    8.545867    0.433818
H      -4.180532    8.621224    1.917933
H      -5.135310    8.902285    0.664427
C      -3.615871    6.081497    1.547361
H      -3.822451    5.124262    1.509231
H      -3.507016    6.356447    2.481897
H      -2.785333    6.258687    1.057146
C      -4.735778    6.860116    0.926088
C      -6.048503    6.611438    1.704905
C      -6.761206    5.410007    1.520647
H      -6.369986    4.727111    0.986366
C      -8.017656    5.176808    2.088035
C      -8.840652    3.919164    1.743036
C      -8.072157    2.881073    0.922891
H      -7.818093    3.268855    0.059365
H      -8.639871    2.095733    0.774023
H      -7.265356    2.613048    1.411051
C      -9.315798    3.277409    3.052482
H      -8.542044    2.955208    3.559592
H      -9.909183    2.525471    2.849501
H      -9.800269    3.942993    3.584708
C     -10.067666    4.401651    0.953030
H     -10.528521    5.099822    1.461282
H     -10.677564    3.649713    0.803705
H      -9.779106    4.763771    0.089047
C      -9.235386   12.357903    0.562137
H     -10.061918   12.729188    0.933851
H      -9.451390   11.602909   -0.025116
H      -8.770474   13.048945    0.047948
C      -8.188720   12.972977    2.754517
H      -7.861406   13.792329    2.326635
H      -7.551705   12.686417    3.440863
H      -9.059866   13.144668    3.169156
C      -6.965390   11.528571    1.110346
H      -7.068296   10.806571    0.454367
H      -6.362620   11.236308    1.826603
H      -6.590291   12.319817    0.668993
C      -8.332381   11.876026    1.704677
C      -8.895376   10.639971    2.430295
C     -10.281531   10.437526    2.499478
H     -10.848046   11.091705    2.107443
C     -10.880909    9.329578    3.112531
C     -12.408305    9.211247    3.215049
C     -13.161795   10.276426    2.422304
H     -12.932704   11.165025    2.767303
H     -14.125547   10.130397    2.511579
H     -12.909776   10.220010    1.477265
C     -12.788240    7.831811    2.666612
H     -12.501989    7.761749    1.732990
H     -13.759987    7.714906    2.719355
H     -12.345487    7.136492    3.196555
C     -12.774774    9.277032    4.674962
H     -12.297438    8.574381    5.162436
H     -13.739927    9.146685    4.774283
H     -12.525066   10.152800    5.034574
C      -9.836517   11.540587    6.713907
H     -10.738789   11.325922    6.397677
H      -9.222258   11.574396    5.952442
H      -9.846847   12.411467    7.162567
C     -10.345679   10.402292    8.881400
H     -10.372840   11.275005    9.324808
H     -10.045949    9.721026    9.518884
H     -11.241157   10.173167    8.555351
C      -7.974865   10.829585    8.228161
H      -7.345372   10.883964    7.477656
H      -7.672829   10.142617    8.859024
H      -8.015713   11.696596    8.683214
C      -9.370036   10.460541    7.700501
C      -9.241377    9.136298    6.929218
C      -9.958900    7.996374    7.309152
H     -10.560618    8.073360    8.041619
C      -9.847468    6.744433    6.676005
C     -10.682929    5.538520    7.155032
C     -11.348202    5.762554    8.522473
H     -10.661794    5.971516    9.190096
H     -11.826136    4.949108    8.790527
H     -11.981044    6.509197    8.459455
C     -11.771821    5.301045    6.087383
H     -12.387876    6.063167    6.073455
H     -12.270066    4.484747    6.304063
H     -11.350626    5.203692    5.208102
C      -9.779147    4.304298    7.229694
H      -9.410128    4.116110    6.340595
H     -10.301599    3.533622    7.537020
H      -9.046007    4.472527    7.858959
C      -0.825892   11.042825   10.936785
H       0.034677   11.462379   10.735859
H      -0.674674   10.201680   11.418551
H      -1.362073   11.645679   11.493899
C      -1.728956   12.059123    8.870440
H      -2.242060   12.702711    9.400155
H      -2.208104   11.863603    8.037053
H      -0.850349   12.435907    8.660381
C      -3.008425   10.291294    9.875072
H      -3.010966    9.362572   10.187878
H      -3.492521   10.350357    9.025702
H      -3.447041   10.859524   10.541782
O      -1.508013    3.306534    5.993541
H      -1.035464    3.997983    5.927326
C      -1.971240    3.176798    7.324221
H      -2.489658    2.350317    7.411441
H      -2.537493    3.942993    7.548437
H      -1.203689    3.146655    7.934306
