9
UMITOB
Dy   17.395382   12.825420    5.454519
 O   16.310823   12.530928    7.517290
 O   18.945108   11.498123    4.416211
 O   16.953917   12.972050    3.205900
 O   18.986502   12.464056    7.056650
 O   18.974405   14.398855    4.835718
 N   16.652111   10.347802    5.642224
 N   14.880488   12.314277    5.119002
 O   16.402891   14.882408    5.651512
